192
# CELL(abcABC):    8.84763     8.84763     8.84763    90.00000    90.00000    90.00000  Step:      100000  Bead:       0 positions{angstrom}  cell{angstrom}
       O -1.19644e+01  9.24387e+00  1.78577e+01
       H  7.96702e+00  7.79790e+01  4.57029e+01
       H  2.39381e+01  2.05999e+01  4.58478e+01
       O  1.87375e+01 -2.70994e+00  3.89109e+00
       H -5.76783e+00  1.25570e+01 -6.49903e+01
       H  8.03264e+00  6.71408e+01  3.04489e+01
       O -3.64917e-01 -9.61413e+00  9.16636e+00
       H -1.59733e+02 -1.77967e+01  2.95182e+01
       H  8.75539e+00 -5.19097e+01  1.79881e+01
       O  6.97558e+00 -1.25838e+00 -2.12483e+00
       H  2.95803e+01 -3.17613e+01  9.01438e+00
       H  2.21285e+00 -4.82126e+01  8.00588e+01
       O  1.38263e+01  1.30028e+01 -6.50990e+00
       H  6.37198e+00  2.99281e+01 -5.54415e+01
       H -3.81586e+00  2.11417e+01  1.57966e+01
       O  3.19946e+00  5.46644e-01  1.05109e+00
       H  6.39594e+01 -4.33696e+00  9.53736e+01
       H -1.12192e+01 -1.89639e+01  1.84523e+00
       O  2.10980e+00  6.99519e+00 -3.24117e+00
       H  2.31146e+01 -4.77197e+01  3.53885e+01
       H -6.78095e+01  5.88124e+01  9.81184e+00
       O  1.10819e+01 -8.20858e+00  6.14210e+00
       H -1.20841e+01 -5.25455e+01  6.06976e+01
       H -6.68359e+00 -8.48635e+01  5.45147e+01
       O  4.01271e+00  1.72164e+01  1.69209e+01
       H  5.14534e-01  1.16778e+01  2.36072e+01
       H  1.16995e+02  2.91055e+01 -5.68030e+01
       O  1.89271e+01  1.24338e+01  5.09796e+00
       H  1.78881e+01 -5.39773e+01  5.90868e+01
       H -4.37421e+01  4.11807e+01 -3.66204e+01
       O  5.45553e+00 -1.37589e+01  5.22502e+00
       H  5.03795e+01 -1.22739e+01  1.90066e+01
       H  1.66933e+01  2.15695e+00 -6.34011e+01
       O  1.65197e+01 -2.77240e+00 -3.14455e-01
       H  1.84860e+01 -2.21354e+01  1.41137e+01
       H -5.62419e+01  7.50183e+00  6.23619e+01
       O  3.23941e+00  2.04889e+01  3.31451e+00
       H  7.18115e+01  5.38278e+01 -5.96848e+00
       H  1.44572e+01 -2.97082e+01  2.12089e+01
       O -2.10030e+00 -2.78778e-01 -6.99750e+00
       H -3.61826e+01  5.86784e+00  2.90943e+01
       H -2.64393e+01 -7.85847e+01  5.13044e+01
       O -1.80061e+01  1.25983e+01 -1.01560e+00
       H -5.82120e+01 -4.22184e+00 -5.04646e+01
       H  4.37040e+01 -4.60891e+01  2.60529e+01
       O -2.54396e+00  2.85842e+00  3.49065e+00
       H -2.04240e+01  1.52500e+01 -1.12474e+02
       H  3.76188e+01 -6.73457e+00 -4.50635e+01
       O  1.20914e+01  6.22236e+00 -1.18206e+00
       H  4.49973e+01 -1.05247e+00 -6.97583e+00
       H -1.65756e+01  2.13260e+01  4.46487e+01
       O  8.06397e+00 -1.35358e+01 -3.58464e+00
       H  4.22607e+01 -4.34801e+01 -4.86836e+00
       H  5.11155e+01 -7.18021e+01  3.99285e+01
       O -5.46557e-01  1.44286e+00  1.37917e+00
       H -9.63332e+00  4.63218e+01 -2.05918e+01
       H  4.04125e+01 -6.89962e+00 -3.65930e+01
       O  1.91506e+01  1.63335e+01 -7.30302e+00
       H -2.15239e+00  3.15069e+01  7.91512e+00
       H  3.45542e+01 -4.77053e+01 -9.70808e+00
       O  1.03958e+01 -7.07694e+00  8.51132e+00
       H  7.29148e+01 -7.93496e+01 -4.45094e+01
       H  1.21033e+02  5.96981e+00  1.57642e+01
       O  4.98044e+00  8.41675e+00 -6.71396e+00
       H  1.00771e+01  3.40223e+01 -1.02818e+01
       H  2.58191e+00 -1.95461e+01 -1.06723e+02
       O  7.18374e+00  2.26173e+01  1.22790e+01
       H  8.44032e+00  1.25712e+01  6.64007e+00
       H  4.02902e+00 -9.38741e+00  3.00044e+01
       O  1.02881e+01  1.03110e+01  1.30711e+01
       H -1.60774e+01 -3.52223e+01  2.77671e+01
       H  1.81034e+01 -1.45553e+01  2.92461e+01
       O  1.55059e+01 -6.45231e+00  5.60676e-01
       H  9.18424e+00  1.30422e+01  5.27853e+01
       H -1.24299e+01 -9.98953e+00  6.47940e+01
       O  7.15829e-01  2.86350e+01  6.51309e+00
       H -1.01299e+00 -7.33113e+01 -2.87690e+01
       H  6.36639e+01  8.34458e+01  4.38819e+00
       O -7.43545e+00  1.51655e+01 -9.81475e+00
       H -3.67303e+01 -3.22414e+01  1.36414e+01
       H  2.02124e+01  1.88675e+01 -1.39243e+01
       O  1.77998e+01 -2.38940e+00  1.51446e+01
       H -3.59789e+01  7.10098e+01  1.38537e+01
       H -3.67098e+01  7.39380e+00  2.52173e+01
       O -1.30127e+01 -7.04213e+00 -3.34766e+00
       H -3.51349e+01 -2.47300e+01  5.51375e+01
       H  7.21741e+01  9.61317e+00  4.21616e+01
       O  1.39432e+01  1.04723e+01  1.09145e+01
       H -5.74880e+01  4.05477e+01  7.56150e+01
       H -2.58371e+01 -1.07647e+01  4.77357e+01
       O -2.70152e+00 -2.85442e-01  4.20506e+00
       H  2.80424e+01  5.95027e+01  1.44501e+00
       H  7.10273e+00  5.29180e+01  1.62092e+01
       O  7.72773e+00  4.24947e+00 -1.61423e+01
       H  2.45848e+01  1.03761e+01  1.42876e+01
       H  4.09134e+01 -3.19376e+01 -2.67340e+01
       O -1.49708e+01 -3.94334e+00  2.81841e+00
       H  1.30212e+01 -7.96810e+01  3.73184e+01
       H  1.06182e+01  3.79320e+01  2.42148e+01
       O  3.21426e+00  5.03506e+00 -3.62914e+00
       H  4.96355e+01  1.90918e+01  5.94818e+00
       H  1.50489e+01 -4.50571e+00  4.98662e+01
       O  1.33069e+01  1.29372e+01  7.02850e+00
       H  5.65748e+01  8.99143e+01 -4.26335e+01
       H  2.61216e+00  5.01852e+01  5.54553e+00
       O  6.61085e+00  5.12255e+00 -1.06997e+01
       H -3.32499e+01 -5.34953e+01 -1.15161e+01
       H  5.84897e+01 -6.86532e+01 -4.99135e+01
       O  2.07416e+01  1.65566e+01  1.18817e+01
       H  6.24861e+01 -3.54107e+01  6.06599e+01
       H  1.48871e+01 -3.39963e+01  8.76748e+00
       O -9.54277e+00  1.40996e+00  1.66206e+01
       H  5.58595e+01  1.04885e+01  7.12588e+01
       H  1.84921e-01 -2.89052e+00 -5.25093e+01
       O  3.64238e+00  1.56402e+01  1.23728e+00
       H  4.72824e+01 -2.10866e+01  2.21660e+01
       H -1.74192e+01 -5.57447e+01 -3.90203e+01
       O  2.87289e+00  2.77621e+00  1.48872e+01
       H -1.06894e+01  3.19937e+01 -2.16192e+01
       H -2.75712e+01 -7.05975e+00  2.68803e+01
       O  4.90018e+00  6.34016e+00 -2.90577e+00
       H  7.67723e+00 -2.24167e+01 -4.37842e+01
       H  2.23512e+01 -5.17062e+00 -7.40927e+01
       O  2.81280e+01 -9.14360e+00 -7.91676e-01
       H -8.69633e+01  2.39461e+01 -1.13482e+01
       H  3.66558e+01  2.29381e+01  3.35161e+00
       O  1.22748e+01 -8.08250e+00  2.15224e+01
       H -1.36899e+01  1.25747e+01 -2.75944e+01
       H  3.21713e+01 -5.13167e+01  2.77324e+01
       O  8.83748e+00 -4.85032e-02  5.72011e+00
       H  7.13584e+01  7.27038e+01 -4.71182e+00
       H  2.40021e+01  2.85214e+01 -5.49142e+01
       O  6.30770e+00  1.84477e+01  1.56623e+01
       H  2.30760e+01 -1.14638e+01  2.28095e+01
       H -2.48471e+00  3.54192e+01 -3.24531e+01
       O  8.58148e-01  1.70927e+01  3.68546e+00
       H -5.13122e+01 -4.12665e-01 -1.44653e+01
       H -1.42152e+01  1.99013e+01  6.93241e+00
       O  6.44789e+00  1.18091e+01  2.49468e+01
       H -4.02677e+01 -7.93542e+01 -3.06315e+01
       H -6.07119e+01  8.10013e+00  3.99290e+01
       O -4.68465e+00  1.63950e+00  7.61522e+00
       H -5.69365e+01  4.47568e+01 -4.34881e+01
       H  3.54066e+01  1.77585e+01 -4.39943e+01
       O  5.53111e+00 -1.09246e+01  2.62613e+01
       H -5.80343e+01 -5.63187e+01  2.54321e+01
       H -4.28889e+01  3.76865e+01  9.54387e+00
       O  8.03075e+00  7.05980e+00  2.49363e+00
       H -2.40901e+01 -1.38702e+00  3.89878e+00
       H  6.40940e+01  5.59371e+01 -1.51401e+01
       O  1.50796e+00  8.43418e-01  1.94780e+00
       H  5.01753e+01  8.69608e+01  2.48751e+01
       H -4.00818e+01  4.66251e+01 -8.81030e+00
       O -3.23820e+00  2.37381e+01  1.58947e+00
       H -2.43163e+01  1.88366e+01  4.05003e+01
       H -3.27249e+01 -1.18391e+01 -3.24554e+01
       O -5.63766e+00 -1.29385e+01  9.31246e+00
       H  3.44565e+01 -1.43139e+01 -4.14689e+01
       H -8.02506e+01  3.72601e+00  3.06552e+01
       O -4.40774e+00  1.72979e+01  5.64906e+00
       H  4.77084e+01  2.93494e+01 -7.53036e+01
       H  2.43781e+01 -3.10558e+01 -2.23423e+01
       O -1.01082e+01  1.96916e+01  5.19778e+00
       H -1.18781e+01 -8.74487e+01  4.67654e+01
       H  4.02149e+00 -8.93186e+01 -3.70337e+01
       O  1.02724e+01  3.01858e+00  1.70324e+00
       H  8.25394e-01 -6.72501e+01  1.65453e+01
       H  1.48597e+01 -2.24327e+01 -5.04404e+01
       O -1.29673e+01 -2.81331e+00  2.13371e+01
       H -3.95871e+00 -3.62982e+01 -4.64590e+01
       H -1.50507e+01  1.64320e+01 -1.60532e+01
       O -3.30816e+00  4.33583e+00  3.36850e-01
       H  5.60310e+01 -2.00940e+01 -1.07875e+01
       H -4.77967e+00 -6.33460e+01 -9.16509e+01
       O -5.28172e+00 -1.47650e+01 -8.33691e+00
       H -7.57105e+01 -7.04908e+00 -4.10943e+01
       H  6.91387e+01 -1.56313e+01 -5.88868e+01
       O -7.03777e+00  3.97697e+00  7.70003e+00
       H  3.54812e+01 -3.07079e+01  1.91953e+01
       H  3.05943e+01  3.54410e+01 -3.54842e+01
       O  9.84684e-01  5.30252e+00  9.85437e+00
       H  6.03981e+01 -5.27933e+01  6.30472e+01
       H -2.13176e+01 -1.08077e+01  2.19775e+01
       O  6.93955e+00  2.41356e+01  2.22835e+01
       H -3.97656e+01 -6.43614e+01 -1.59909e+01
       H  3.13740e+01  2.18816e+01  9.85361e+01
       O  1.75439e+01  2.03456e+01 -5.39572e+00
       H  3.98199e+01  4.60488e+01 -2.18187e+01
       H -4.73872e+00 -1.94403e+01  1.81970e+01
       O -1.86657e+01 -8.17321e+00  3.60200e+00
       H  1.35679e+01 -5.75861e+00  2.43092e+00
       H  1.22180e+02 -1.95430e+01  1.43384e+01
