192
# CELL(abcABC): 7.79000000 6.46556000 6.85806000  90.00000     90.00000     90.00000   cell{angstrom}  Traj: positions{angstrom}
H 6.8065550000000004e+00 -8.0819500000000000e-01 3.9636020000000003e+00
H 6.8065550000000004e+00 4.0409750000000004e+00 4.6089730000000007e+00
H 0.0000000000000000e+00 -1.6163900000000000e+00 -1.7145150000000000e+00
H 0.0000000000000000e+00 0.0000000000000000e+00 0.0000000000000000e+00
H 0.0000000000000000e+00 -1.6163900000000000e+00 0.0000000000000000e+00
H 0.0000000000000000e+00 0.0000000000000000e+00 -1.7145150000000000e+00
H -9.6405500000000000e-01 -8.0819500000000000e-01 -1.1799430000000000e+00
H -9.6405500000000000e-01 4.0409750000000004e+00 -5.3457200000000005e-01
O -4.6894400000000003e-01 4.0409750000000004e+00 3.7763079999999998e+00
O -4.6894400000000003e-01 -8.0819500000000000e-01 4.7962670000000003e+00
O 6.3114440000000007e+00 -8.0819500000000000e-01 -3.4727799999999998e-01
O 6.3114440000000007e+00 4.0409750000000004e+00 -1.3672370000000000e+00
H 6.8065550000000004e+00 -8.0819500000000000e-01 5.3457199999999983e-01
H 6.8065550000000004e+00 4.0409750000000004e+00 1.1799430000000002e+00
H 0.0000000000000000e+00 -1.6163900000000000e+00 1.7145150000000000e+00
H 0.0000000000000000e+00 0.0000000000000000e+00 3.4290299999999996e+00
H 0.0000000000000000e+00 -1.6163900000000000e+00 3.4290299999999996e+00
H 0.0000000000000000e+00 0.0000000000000000e+00 1.7145150000000000e+00
H -9.6405500000000000e-01 -8.0819500000000000e-01 2.2490870000000003e+00
H -9.6405500000000000e-01 4.0409750000000004e+00 2.8944580000000006e+00
O -4.6894400000000003e-01 4.0409750000000004e+00 3.4727800000000020e-01
O -4.6894400000000003e-01 -8.0819500000000000e-01 1.3672369999999998e+00
O 6.3114440000000007e+00 -8.0819500000000000e-01 3.0817520000000003e+00
O 6.3114440000000007e+00 4.0409750000000004e+00 2.0617930000000002e+00
H 6.8065550000000004e+00 2.4245849999999995e+00 3.9636020000000003e+00
H 6.8065550000000004e+00 8.0819500000000000e-01 4.6089730000000007e+00
H 0.0000000000000000e+00 1.6163900000000000e+00 -1.7145150000000000e+00
H 0.0000000000000000e+00 3.2327800000000000e+00 0.0000000000000000e+00
H 0.0000000000000000e+00 1.6163900000000000e+00 0.0000000000000000e+00
H 0.0000000000000000e+00 3.2327800000000000e+00 -1.7145150000000000e+00
H -9.6405500000000000e-01 2.4245849999999995e+00 -1.1799430000000000e+00
H -9.6405500000000000e-01 8.0819500000000000e-01 -5.3457200000000005e-01
O -4.6894400000000003e-01 8.0819500000000000e-01 3.7763079999999998e+00
O -4.6894400000000003e-01 2.4245849999999995e+00 4.7962670000000003e+00
O 6.3114440000000007e+00 2.4245849999999995e+00 -3.4727799999999998e-01
O 6.3114440000000007e+00 8.0819500000000000e-01 -1.3672370000000000e+00
H 6.8065550000000004e+00 2.4245849999999995e+00 5.3457199999999983e-01
H 6.8065550000000004e+00 8.0819500000000000e-01 1.1799430000000002e+00
H 0.0000000000000000e+00 1.6163900000000000e+00 1.7145150000000000e+00
H 0.0000000000000000e+00 3.2327800000000000e+00 3.4290299999999996e+00
H 0.0000000000000000e+00 1.6163900000000000e+00 3.4290299999999996e+00
H 0.0000000000000000e+00 3.2327800000000000e+00 1.7145150000000000e+00
H -9.6405500000000000e-01 2.4245849999999995e+00 2.2490870000000003e+00
H -9.6405500000000000e-01 8.0819500000000000e-01 2.8944580000000006e+00
O -4.6894400000000003e-01 8.0819500000000000e-01 3.4727800000000020e-01
O -4.6894400000000003e-01 2.4245849999999995e+00 1.3672369999999998e+00
O 6.3114440000000007e+00 2.4245849999999995e+00 3.0817520000000003e+00
O 6.3114440000000007e+00 8.0819500000000000e-01 2.0617930000000002e+00
H 9.6405500000000000e-01 -8.0819500000000000e-01 3.9636020000000003e+00
H 9.6405500000000000e-01 4.0409750000000004e+00 4.6089730000000007e+00
H 1.9475000000000002e+00 -1.6163900000000000e+00 -1.7145150000000000e+00
H 1.9475000000000002e+00 0.0000000000000000e+00 0.0000000000000000e+00
H 1.9475000000000002e+00 -1.6163900000000000e+00 0.0000000000000000e+00
H 1.9475000000000002e+00 0.0000000000000000e+00 -1.7145150000000000e+00
H 9.8344499999999979e-01 -8.0819500000000000e-01 -1.1799430000000000e+00
H 9.8344499999999979e-01 4.0409750000000004e+00 -5.3457200000000005e-01
O 1.4785560000000002e+00 4.0409750000000004e+00 3.7763079999999998e+00
O 1.4785560000000002e+00 -8.0819500000000000e-01 4.7962670000000003e+00
O 4.6894400000000036e-01 -8.0819500000000000e-01 -3.4727799999999998e-01
O 4.6894400000000036e-01 4.0409750000000004e+00 -1.3672370000000000e+00
H 9.6405500000000000e-01 -8.0819500000000000e-01 5.3457199999999983e-01
H 9.6405500000000000e-01 4.0409750000000004e+00 1.1799430000000002e+00
H 1.9475000000000002e+00 -1.6163900000000000e+00 1.7145150000000000e+00
H 1.9475000000000002e+00 0.0000000000000000e+00 3.4290299999999996e+00
H 1.9475000000000002e+00 -1.6163900000000000e+00 3.4290299999999996e+00
H 1.9475000000000002e+00 0.0000000000000000e+00 1.7145150000000000e+00
H 9.8344499999999979e-01 -8.0819500000000000e-01 2.2490870000000003e+00
H 9.8344499999999979e-01 4.0409750000000004e+00 2.8944580000000006e+00
O 1.4785560000000002e+00 4.0409750000000004e+00 3.4727800000000020e-01
O 1.4785560000000002e+00 -8.0819500000000000e-01 1.3672369999999998e+00
O 4.6894400000000036e-01 -8.0819500000000000e-01 3.0817520000000003e+00
O 4.6894400000000036e-01 4.0409750000000004e+00 2.0617930000000002e+00
H 9.6405500000000000e-01 2.4245849999999995e+00 3.9636020000000003e+00
H 9.6405500000000000e-01 8.0819500000000000e-01 4.6089730000000007e+00
H 1.9475000000000002e+00 1.6163900000000000e+00 -1.7145150000000000e+00
H 1.9475000000000002e+00 3.2327800000000000e+00 0.0000000000000000e+00
H 1.9475000000000002e+00 1.6163900000000000e+00 0.0000000000000000e+00
H 1.9475000000000002e+00 3.2327800000000000e+00 -1.7145150000000000e+00
H 9.8344499999999979e-01 2.4245849999999995e+00 -1.1799430000000000e+00
H 9.8344499999999979e-01 8.0819500000000000e-01 -5.3457200000000005e-01
O 1.4785560000000002e+00 8.0819500000000000e-01 3.7763079999999998e+00
O 1.4785560000000002e+00 2.4245849999999995e+00 4.7962670000000003e+00
O 4.6894400000000036e-01 2.4245849999999995e+00 -3.4727799999999998e-01
O 4.6894400000000036e-01 8.0819500000000000e-01 -1.3672370000000000e+00
H 9.6405500000000000e-01 2.4245849999999995e+00 5.3457199999999983e-01
H 9.6405500000000000e-01 8.0819500000000000e-01 1.1799430000000002e+00
H 1.9475000000000002e+00 1.6163900000000000e+00 1.7145150000000000e+00
H 1.9475000000000002e+00 3.2327800000000000e+00 3.4290299999999996e+00
H 1.9475000000000002e+00 1.6163900000000000e+00 3.4290299999999996e+00
H 1.9475000000000002e+00 3.2327800000000000e+00 1.7145150000000000e+00
H 9.8344499999999979e-01 2.4245849999999995e+00 2.2490870000000003e+00
H 9.8344499999999979e-01 8.0819500000000000e-01 2.8944580000000006e+00
O 1.4785560000000002e+00 8.0819500000000000e-01 3.4727800000000020e-01
O 1.4785560000000002e+00 2.4245849999999995e+00 1.3672369999999998e+00
O 4.6894400000000036e-01 2.4245849999999995e+00 3.0817520000000003e+00
O 4.6894400000000036e-01 8.0819500000000000e-01 2.0617930000000002e+00
H 2.9115549999999999e+00 -8.0819500000000000e-01 3.9636020000000003e+00
H 2.9115549999999999e+00 4.0409750000000004e+00 4.6089730000000007e+00
H 3.8950000000000005e+00 -1.6163900000000000e+00 -1.7145150000000000e+00
H 3.8950000000000005e+00 0.0000000000000000e+00 0.0000000000000000e+00
H 3.8950000000000005e+00 -1.6163900000000000e+00 0.0000000000000000e+00
H 3.8950000000000005e+00 0.0000000000000000e+00 -1.7145150000000000e+00
H 2.9309449999999995e+00 -8.0819500000000000e-01 -1.1799430000000000e+00
H 2.9309449999999995e+00 4.0409750000000004e+00 -5.3457200000000005e-01
O 3.4260560000000000e+00 4.0409750000000004e+00 3.7763079999999998e+00
O 3.4260560000000000e+00 -8.0819500000000000e-01 4.7962670000000003e+00
O 2.4164440000000003e+00 -8.0819500000000000e-01 -3.4727799999999998e-01
O 2.4164440000000003e+00 4.0409750000000004e+00 -1.3672370000000000e+00
H 2.9115549999999999e+00 -8.0819500000000000e-01 5.3457199999999983e-01
H 2.9115549999999999e+00 4.0409750000000004e+00 1.1799430000000002e+00
H 3.8950000000000005e+00 -1.6163900000000000e+00 1.7145150000000000e+00
H 3.8950000000000005e+00 0.0000000000000000e+00 3.4290299999999996e+00
H 3.8950000000000005e+00 -1.6163900000000000e+00 3.4290299999999996e+00
H 3.8950000000000005e+00 0.0000000000000000e+00 1.7145150000000000e+00
H 2.9309449999999995e+00 -8.0819500000000000e-01 2.2490870000000003e+00
H 2.9309449999999995e+00 4.0409750000000004e+00 2.8944580000000006e+00
O 3.4260560000000000e+00 4.0409750000000004e+00 3.4727800000000020e-01
O 3.4260560000000000e+00 -8.0819500000000000e-01 1.3672369999999998e+00
O 2.4164440000000003e+00 -8.0819500000000000e-01 3.0817520000000003e+00
O 2.4164440000000003e+00 4.0409750000000004e+00 2.0617930000000002e+00
H 2.9115549999999999e+00 2.4245849999999995e+00 3.9636020000000003e+00
H 2.9115549999999999e+00 8.0819500000000000e-01 4.6089730000000007e+00
H 3.8950000000000005e+00 1.6163900000000000e+00 -1.7145150000000000e+00
H 3.8950000000000005e+00 3.2327800000000000e+00 0.0000000000000000e+00
H 3.8950000000000005e+00 1.6163900000000000e+00 0.0000000000000000e+00
H 3.8950000000000005e+00 3.2327800000000000e+00 -1.7145150000000000e+00
H 2.9309449999999995e+00 2.4245849999999995e+00 -1.1799430000000000e+00
H 2.9309449999999995e+00 8.0819500000000000e-01 -5.3457200000000005e-01
O 3.4260560000000000e+00 8.0819500000000000e-01 3.7763079999999998e+00
O 3.4260560000000000e+00 2.4245849999999995e+00 4.7962670000000003e+00
O 2.4164440000000003e+00 2.4245849999999995e+00 -3.4727799999999998e-01
O 2.4164440000000003e+00 8.0819500000000000e-01 -1.3672370000000000e+00
H 2.9115549999999999e+00 2.4245849999999995e+00 5.3457199999999983e-01
H 2.9115549999999999e+00 8.0819500000000000e-01 1.1799430000000002e+00
H 3.8950000000000005e+00 1.6163900000000000e+00 1.7145150000000000e+00
H 3.8950000000000005e+00 3.2327800000000000e+00 3.4290299999999996e+00
H 3.8950000000000005e+00 1.6163900000000000e+00 3.4290299999999996e+00
H 3.8950000000000005e+00 3.2327800000000000e+00 1.7145150000000000e+00
H 2.9309449999999995e+00 2.4245849999999995e+00 2.2490870000000003e+00
H 2.9309449999999995e+00 8.0819500000000000e-01 2.8944580000000006e+00
O 3.4260560000000000e+00 8.0819500000000000e-01 3.4727800000000020e-01
O 3.4260560000000000e+00 2.4245849999999995e+00 1.3672369999999998e+00
O 2.4164440000000003e+00 2.4245849999999995e+00 3.0817520000000003e+00
O 2.4164440000000003e+00 8.0819500000000000e-01 2.0617930000000002e+00
H 4.8590549999999988e+00 -8.0819500000000000e-01 3.9636020000000003e+00
H 4.8590549999999988e+00 4.0409750000000004e+00 4.6089730000000007e+00
H 5.8425000000000002e+00 -1.6163900000000000e+00 -1.7145150000000000e+00
H 5.8425000000000002e+00 0.0000000000000000e+00 0.0000000000000000e+00
H 5.8425000000000002e+00 -1.6163900000000000e+00 0.0000000000000000e+00
H 5.8425000000000002e+00 0.0000000000000000e+00 -1.7145150000000000e+00
H 4.8784449999999984e+00 -8.0819500000000000e-01 -1.1799430000000000e+00
H 4.8784449999999984e+00 4.0409750000000004e+00 -5.3457200000000005e-01
O 5.3735560000000007e+00 4.0409750000000004e+00 3.7763079999999998e+00
O 5.3735560000000007e+00 -8.0819500000000000e-01 4.7962670000000003e+00
O 4.3639440000000000e+00 -8.0819500000000000e-01 -3.4727799999999998e-01
O 4.3639440000000000e+00 4.0409750000000004e+00 -1.3672370000000000e+00
H 4.8590549999999988e+00 -8.0819500000000000e-01 5.3457199999999983e-01
H 4.8590549999999988e+00 4.0409750000000004e+00 1.1799430000000002e+00
H 5.8425000000000002e+00 -1.6163900000000000e+00 1.7145150000000000e+00
H 5.8425000000000002e+00 0.0000000000000000e+00 3.4290299999999996e+00
H 5.8425000000000002e+00 -1.6163900000000000e+00 3.4290299999999996e+00
H 5.8425000000000002e+00 0.0000000000000000e+00 1.7145150000000000e+00
H 4.8784449999999984e+00 -8.0819500000000000e-01 2.2490870000000003e+00
H 4.8784449999999984e+00 4.0409750000000004e+00 2.8944580000000006e+00
O 5.3735560000000007e+00 4.0409750000000004e+00 3.4727800000000020e-01
O 5.3735560000000007e+00 -8.0819500000000000e-01 1.3672369999999998e+00
O 4.3639440000000000e+00 -8.0819500000000000e-01 3.0817520000000003e+00
O 4.3639440000000000e+00 4.0409750000000004e+00 2.0617930000000002e+00
H 4.8590549999999988e+00 2.4245849999999995e+00 3.9636020000000003e+00
H 4.8590549999999988e+00 8.0819500000000000e-01 4.6089730000000007e+00
H 5.8425000000000002e+00 1.6163900000000000e+00 -1.7145150000000000e+00
H 5.8425000000000002e+00 3.2327800000000000e+00 0.0000000000000000e+00
H 5.8425000000000002e+00 1.6163900000000000e+00 0.0000000000000000e+00
H 5.8425000000000002e+00 3.2327800000000000e+00 -1.7145150000000000e+00
H 4.8784449999999984e+00 2.4245849999999995e+00 -1.1799430000000000e+00
H 4.8784449999999984e+00 8.0819500000000000e-01 -5.3457200000000005e-01
O 5.3735560000000007e+00 8.0819500000000000e-01 3.7763079999999998e+00
O 5.3735560000000007e+00 2.4245849999999995e+00 4.7962670000000003e+00
O 4.3639440000000000e+00 2.4245849999999995e+00 -3.4727799999999998e-01
O 4.3639440000000000e+00 8.0819500000000000e-01 -1.3672370000000000e+00
H 4.8590549999999988e+00 2.4245849999999995e+00 5.3457199999999983e-01
H 4.8590549999999988e+00 8.0819500000000000e-01 1.1799430000000002e+00
H 5.8425000000000002e+00 1.6163900000000000e+00 1.7145150000000000e+00
H 5.8425000000000002e+00 3.2327800000000000e+00 3.4290299999999996e+00
H 5.8425000000000002e+00 1.6163900000000000e+00 3.4290299999999996e+00
H 5.8425000000000002e+00 3.2327800000000000e+00 1.7145150000000000e+00
H 4.8784449999999984e+00 2.4245849999999995e+00 2.2490870000000003e+00
H 4.8784449999999984e+00 8.0819500000000000e-01 2.8944580000000006e+00
O 5.3735560000000007e+00 8.0819500000000000e-01 3.4727800000000020e-01
O 5.3735560000000007e+00 2.4245849999999995e+00 1.3672369999999998e+00
O 4.3639440000000000e+00 2.4245849999999995e+00 3.0817520000000003e+00
O 4.3639440000000000e+00 8.0819500000000000e-01 2.0617930000000002e+00
