384
# CELL(abcABC): 8.60959904 8.60959904 8.60959904 90.00000     90.00000     90.00000   cell{angstrom}  Traj: positions{angstrom}
H 3.78588026 1.74949152 2.61121011
H 3.00149159 7.78377850 3.85963961
H 7.08227176 3.78766920 8.58429870
H 7.20228857 0.89863742 0.23873577
H 6.14543232 5.42670887 0.49438986
H 7.65253545 8.07738865 6.43022127
H 0.55789046 6.97495446 3.74580164
H 3.24966651 0.05927256 3.08252846
H 2.24966740 3.95881305 5.41324342
H 3.44110149 2.95188428 6.40477724
H 7.21714068 2.89795770 4.30835457
H 5.78437281 5.77115413 4.50667377
H 4.83083164 2.01641269 2.63363637
H 8.14852116 2.65093386 1.00516509
H 4.49002219 7.74081618 6.61547488
H 2.30251141 4.64531628 2.96154932
H 8.11854358 4.25035992 7.34255752
H 8.23463224 6.48121745 3.05085987
H 7.22700161 3.05792580 1.84660886
H 0.64739824 8.26816897 6.03283159
H 1.29612410 0.95715216 2.41673163
H 4.73734535 1.06098833 1.35184793
H 5.24613030 5.16414752 2.30706752
H 7.40840178 7.20623167 1.45874064
H 5.21847417 0.11074341 2.00563219
H 2.69779628 1.86501886 2.50856892
H 0.99190579 6.38551686 1.63924274
H 3.82854755 2.77073909 3.71375129
H 3.61841968 3.64229514 4.30506748
H 6.08630145 5.02693109 1.08019236
H 5.51530755 6.57635102 6.72263094
H 4.31278071 5.75825226 4.33393873
H 0.98809706 4.41559677 8.38772764
H 8.11151050 8.49090673 2.71899541
H 4.18325108 7.79776198 2.63878680
H 4.18797583 6.71980346 3.10995364
H 3.21896025 0.57523653 8.21704578
H 5.47872672 0.01058417 7.16179076
H 2.23201505 3.11358274 6.07988727
H 6.47751123 1.77594912 1.22019012
H 8.30967887 3.70263354 0.53672889
H 2.41046115 5.63852568 1.67336615
H 2.18725311 5.40618829 6.02069071
H 4.37551114 5.27713105 8.30846082
H 3.45753336 6.15737140 0.24200491
H 2.14571100 1.69061864 4.73452859
H 4.17933999 1.15151393 0.43820425
H 0.00634328 1.37793304 7.24394413
H 2.27545585 5.72593263 3.95856942
H 0.12079815 2.21124629 3.40158065
H 7.15899497 4.87750035 4.04185279
H 0.60877339 2.08944994 5.87977434
H 8.16518172 3.96649326 1.27496444
H 1.99761727 3.64292293 2.93131946
H 6.72701079 1.77387697 7.48581453
H 1.28885270 7.73314868 6.86180160
H 7.39876622 2.16091082 6.54786621
H 6.08396797 7.82499653 4.85372997
H 7.47150946 8.32295433 8.02367043
H 6.74376945 0.88882916 6.47303419
H 0.61365071 0.55053041 8.28995709
H 4.73133509 7.22392221 4.98705997
H 2.79203111 0.18384113 4.07594748
H 6.50320175 3.02586848 3.26592086
H 0.79500588 8.42875819 2.47959741
H 0.64663283 5.04746704 3.57777618
H 4.77374199 3.25414434 1.77442497
H 7.98134032 4.78723124 5.52605472
H 5.34721563 5.02519792 4.09091347
H 2.90767374 4.51748214 0.57143536
H 1.31631500 2.49304827 2.94585738
H 0.38576582 5.80258435 5.19688218
H 8.15250224 0.85956409 6.53763389
H 4.52783449 8.53769642 1.17167922
H 2.52362003 6.65650790 3.77402304
H 2.31502059 8.44881332 1.13846275
H 0.92712887 0.29138822 4.75082856
H 4.09333443 4.82481023 1.13985387
H 4.27754950 1.86153057 5.50944391
H 3.06167971 2.31668902 5.54309791
H 5.71923790 3.89491258 1.45783233
H 7.70272235 3.65552711 5.72161335
H 2.34665864 4.94821537 7.28827167
H 5.01716974 3.10898329 6.39021553
H 4.22283398 0.24613431 3.54005158
H 6.85909150 0.25246499 1.48551937
H 2.75747981 0.36283279 5.75651890
H 1.88410790 7.91186369 4.84768033
H 3.53419707 1.10455346 4.07222138
H 4.68308567 0.54716158 7.85077009
H 7.20276111 1.90621268 1.84644279
H 5.92513514 3.20491788 7.24203351
H 5.47297037 5.20931037 6.70623683
H 0.95113932 6.43996891 6.63533279
H 7.99006311 8.04960766 4.63998062
H 6.63200970 7.14293230 1.24140477
H 2.25220433 0.77233420 6.67198272
H 5.60704116 2.08090854 2.63998462
H 5.97359577 1.38550178 0.10990381
H 2.94832769 2.24221220 0.86146354
H 3.80692811 8.18448805 0.61011597
H 2.73805398 4.64750871 5.18191600
H 6.53760994 6.04314484 7.76166610
H 7.08267373 6.84999688 2.56031352
H 1.53292023 8.47171716 7.43613323
H 5.13379283 1.04192862 6.28221749
H 5.35941967 2.16579042 1.11672878
H 5.79239342 8.51407560 2.86780185
H 7.56223542 6.98578623 5.57471723
H 5.50283741 4.52198217 7.96388256
H 0.34695985 8.26097738 0.78513724
H 5.08360627 6.78714604 1.87241102
H 4.58386698 1.97795871 7.61302625
H 4.79133893 6.68525582 0.65095740
H 7.13233941 5.75273085 8.47827893
H 5.82099438 3.03970292 2.97856955
H 4.00399559 5.20882762 2.82759415
H 6.59912892 6.30006399 4.96268803
H 4.80254683 6.98038319 7.26574793
H 3.87778783 5.41520749 5.61460116
H 0.93251828 3.10898214 8.55661777
H 4.94259497 4.21107722 4.73859260
H 0.63642031 4.74491077 6.36006423
H 8.36929651 3.37690208 3.94492327
H 6.69681253 4.13347296 6.83713885
H 8.19921334 6.03064269 0.78652294
H 5.17781016 6.70545170 3.66143671
H 2.71421144 3.88092430 0.02082522
H 8.11319627 3.59701921 2.83223260
H 6.65572660 7.26424909 8.28925594
H 0.66381425 0.33823734 3.52734147
H 5.71052168 7.82623343 1.53090619
H 5.72975684 7.91502791 6.15685356
H 1.75793040 5.38915282 2.95084233
H 6.76493842 7.69307118 6.74513683
H 0.01354666 3.31635863 6.20359985
H 4.56972913 5.19348773 6.79096547
H 1.69631382 5.91061850 0.59318895
H 3.58362648 6.17109493 1.88455472
H 4.04405401 3.53625649 2.84372198
H 6.67162149 4.64512870 1.41090949
H 2.33955447 1.80053916 0.11431433
H 1.74534093 6.54646334 5.05222829
H 0.33500913 6.81502682 0.98614778
H 1.67731332 1.17898445 5.69573984
H 7.29247609 6.58017859 4.36121443
H 7.75575559 7.49861684 0.19707267
H 5.14328358 7.62772851 4.17215859
H 3.67772459 0.26532582 1.32275794
H 2.66024377 6.78379308 4.58525194
H 1.70221550 1.89283875 3.24032327
H 3.75537805 6.24961403 7.13414792
H 3.89380707 7.54341600 4.44703095
H 1.59192111 3.74322177 1.67200088
H 0.58983536 1.72415175 2.08160143
H 5.38200346 8.55279524 4.22271812
H 4.72997065 6.36354324 5.86310434
H 4.26167626 3.06715674 0.93061199
H 7.55547236 4.48609525 2.43009868
H 4.33749819 3.12090742 7.69487272
H 7.85807470 5.73362254 6.48674738
H 2.81525646 2.61142211 3.96755451
H 3.23616358 4.07804726 7.09744416
H 7.71497514 0.28212487 5.26229250
H 7.23915127 2.40390068 8.54206123
H 6.59252167 -0.03286545 7.54224747
H 7.68018553 0.88618145 1.78912982
H 1.00642532 8.08395506 4.04508978
H 1.57843676 5.66783594 7.88678270
H 0.06358175 0.26312721 7.18615129
H 1.60936472 7.68032131 2.39436221
H 2.52443735 3.93080321 1.10322779
H 2.89872738 6.65778193 5.81503046
H 4.79130236 4.51801863 0.29728725
H 0.10246887 6.88029509 4.81356535
H 1.59269931 3.98688024 7.00398299
H 5.73292520 1.86558856 5.81727331
H 0.91506675 4.24931631 4.68848686
H 1.08900375 2.73517639 1.23127209
H 0.10857196 1.54969940 4.42699959
H 0.13851749 0.24364456 1.44020640
H 0.77968088 1.63905292 0.25475555
H 2.97615207 8.04535092 6.66955841
H 1.72997433 3.83506083 4.04913718
H 0.86274182 7.64872750 8.53103498
H 2.11402829 1.05609841 7.95745843
H 2.04608498 3.37718525 7.98026040
H 4.23997977 0.67004652 5.20372545
H 3.57507119 7.19389134 8.28134676
H 3.35243260 2.43275087 7.25647847
H 0.95301407 2.42881306 6.96908972
H 4.59361079 2.78147831 4.81739580
H 0.72428246 3.18984507 4.16487146
H 6.83898848 2.85449295 5.71029192
H 0.65195252 4.55163316 2.42370896
H 8.34273319 1.31966231 5.49400295
H 5.54516606 2.76728744 0.15473082
H 3.04238515 4.74251158 1.74535266
H 8.38112739 5.50558149 4.27100286
H 6.13229700 0.77615613 5.58281586
H 5.53927453 8.39718456 8.54239527
H 6.60716190 5.36236868 6.74427463
H 1.75245311 6.66717515 7.68878635
H 4.76509643 1.89941124 0.42355831
H 8.00465790 5.38009680 3.08152743
H 0.34763712 7.43746290 2.32418087
H 6.08058866 5.45430291 3.52080845
H 7.76911371 4.86731822 0.40664012
H 4.71263282 4.61319615 3.29436764
H 1.98913604 7.95832746 3.70787545
H 0.31784987 3.07896424 2.30263958
H 2.73398307 5.84456436 8.04621457
H 5.53873892 1.98876046 7.07895480
H 6.01928013 6.08446313 2.57243581
H 8.32378416 1.43740927 8.57467402
H 6.09958559 4.88640227 5.46458945
H 0.03461565 5.66675228 1.82396879
H 3.41033846 4.13934513 3.67368060
H 3.09081262 6.96387834 2.87222058
H 2.91933662 2.57358132 8.20865093
H 1.15263511 4.70529073 5.41423741
H 5.13766011 1.98062196 4.42433031
H 0.72145453 5.39707634 -0.02147150
H 6.90954792 1.32004554 4.88560532
H 6.24792497 1.27868728 3.67763722
H 8.02494836 3.06629449 7.30250658
H 2.46042618 0.92229364 2.12900218
H 0.26668157 6.39465561 -0.00548927
H 1.42622933 2.63081479 5.26513464
H 6.59519320 2.10396254 3.66216695
H 1.97991839 1.66925745 1.26572698
H 1.56924715 0.46813642 0.87654422
H 6.77116535 0.01689209 3.68812976
H 0.07686734 6.71035923 7.22907771
H 6.88018982 6.75065592 7.00193632
H 7.73840020 7.89680749 3.70721604
H 4.01370710 1.16271525 6.77839627
H 2.37077334 7.39494971 0.27092135
H 4.33140738 0.08253590 7.17716534
H 0.84891030 2.36356693 4.72682833
H 3.38312872 1.74962765 1.62729349
H 6.28296722 3.63098952 4.69008563
H 3.29719169 7.70144302 1.73814580
H 3.93679988 3.95159312 0.33333137
H 5.46655686 3.33680235 4.62468120
H 7.56911994 0.99466131 3.46644785
H 5.79915205 7.25876471 2.87776649
H 4.52625219 3.90023631 6.38998773
H 5.57972069 7.28304826 8.25065527
H 6.48252800 4.29672636 2.72820418
H 6.65216506 5.38685608 5.70031916
H 1.25747027 1.57799276 8.28543199
H 2.89285111 8.35401479 8.26734269
H 2.48496680 7.07823750 6.59248344
H 1.14595498 7.50030975 5.54967188
H 2.36692489 6.97604150 1.46663584
O 8.26829505 0.37764157 0.11956876
O 1.71309447 0.05745365 8.47487856
O 3.95231035 0.23844254 8.31678917
O 6.22837819 0.10434972 8.33134597
O 8.33390096 2.35055972 8.35910647
O 1.78682618 2.36762690 8.41542414
O 4.02436455 2.17597063 8.37806214
O 6.28013068 2.14539902 8.31973154
O 8.27849308 4.56897394 8.26859826
O 1.95215111 4.48918929 0.10187975
O 3.93257333 4.47172327 8.16327295
O 6.30119022 4.46981221 8.38647113
O 7.98166200 6.38594079 0.02052374
O 2.08056357 6.67526641 8.40853256
O 4.16218286 6.61827716 0.06658194
O 6.12262624 6.61577304 0.14969491
O 8.30005132 0.32924310 2.10156219
O 1.71473081 0.19980793 1.90414275
O 4.04093739 0.41673441 2.20592487
O 6.24607656 0.20628285 2.18925609
O 8.21801056 2.37384346 1.88338426
O 2.25043034 2.44985914 1.94260238
O 4.20668492 2.16776876 1.82740088
O 6.02040335 2.41821548 1.77290374
O 8.48317640 4.56498177 2.04432404
O 2.15704505 4.22837751 2.04129274
O 4.15707200 4.09322472 1.98168447
O 5.87660180 4.40524769 2.08528015
O 8.15547114 6.50630098 2.01797413
O 1.95687782 6.56963585 2.16875420
O 4.00747199 6.95341827 2.04856207
O 5.97861483 6.76857930 2.06205855
O 8.33167445 0.28556740 3.97393688
O 1.78052220 0.36225844 4.05737413
O 4.02153313 0.12344286 4.45687773
O 6.34850759 0.61104276 4.42396312
O 8.05989548 2.38913852 4.34395232
O 1.86216210 2.32839364 4.33165742
O 4.20561599 1.86332297 4.44446063
O 6.24846485 2.40896723 4.37794014
O 8.33933666 4.34419042 3.87979230
O 2.06214172 4.69684748 3.88039556
O 3.89397635 4.59518193 4.10534243
O 5.89684256 4.26504198 4.16885327
O 8.16581263 6.44402175 4.00723845
O 1.78260475 6.75943620 3.98818812
O 3.94884503 6.75087309 4.04040406
O 6.10278386 6.47036985 3.87097996
O 8.23117119 8.47967939 6.30103527
O 1.73582376 8.49534835 6.36619755
O 3.83333239 0.08393650 6.39093391
O 6.42331241 8.53730712 6.44082525
O 8.13305979 2.51368217 6.10776376
O 1.74209202 2.44109596 6.20728449
O 4.16517640 2.24466823 6.56403839
O 6.29322330 2.40976796 6.26283330
O 8.35967936 4.51729081 6.21480423
O 1.85463073 4.42931347 6.13975472
O 3.83480772 4.58583448 6.40295906
O 5.90747989 4.54080257 6.28153595
O 8.33939948 6.57611775 6.08526979
O 1.88221603 6.69134333 6.15204401
O 3.83807487 6.70139458 6.21805183
O 6.33641121 6.57096710 6.03096198
O 1.00668904 1.40874773 1.08952986
O 2.99152046 1.18590399 0.84965468
O 5.37504777 1.10949015 0.70029210
O 7.30102150 1.50923366 0.91351128
O 0.67995930 3.46511188 0.94712929
O 3.27002362 3.17574853 0.67286576
O 5.10514013 3.37325397 0.67405856
O 7.23035416 3.47360020 0.88595480
O 1.01341860 5.54715356 1.03257708
O 3.12656914 5.48769000 1.08874810
O 5.07896829 5.38652449 0.83222094
O 7.17656617 5.41791168 1.18091004
O 0.80700561 7.59944982 0.94480472
O 3.01211137 7.84120953 0.87769659
O 5.01539387 7.81278412 0.83530053
O 7.31906891 7.85729636 0.86002469
O 0.72736703 1.51809579 3.18165683
O 2.95023593 1.12751274 3.13238107
O 5.19165019 1.16808129 3.22315462
O 7.11662165 1.61009773 2.81160854
O 1.01516822 3.29941750 2.95078937
O 3.06247862 3.16937827 3.24796766
O 5.04825504 3.32434503 3.28171586
O 7.14808983 3.56300819 2.82186588
O 0.82399917 5.62390959 2.81940056
O 3.19526900 5.63605515 2.88173996
O 4.94148512 5.55833679 3.02871795
O 6.91281523 5.55243411 3.00993312
O 0.85464185 7.58806835 3.02724893
O 2.78045577 7.84517263 3.00076486
O 5.04521326 8.03014001 3.30794387
O 7.08114427 7.73201321 3.03456563
O 0.78956243 1.05330339 5.54309228
O 2.80284309 1.13131576 5.33540092
O 5.27643493 1.02370439 5.35976906
O 7.42112328 1.05905386 5.49486166
O 0.82513749 3.51035973 5.01781273
O 3.26343154 3.19784471 5.26214280
O 4.87565283 3.46024015 5.39618842
O 7.09247252 3.81018903 5.10500479
O 1.08117994 5.37976762 4.91545551
O 3.02762875 5.53060222 5.11421115
O 4.84884189 5.74832401 5.15623558
O 7.20283373 5.45955607 4.91656811
O 0.55309616 7.83942671 4.90950336
O 2.84921870 7.68448446 5.25541570
O 5.21054271 7.85120823 5.20692096
O 7.06785016 7.62204718 4.86702273
O 0.95648757 1.26061711 7.24063471
O 2.86080120 1.31620264 7.30999499
O 5.26413406 1.04935468 7.20930329
O 7.45581147 1.04150367 7.39890508
O 0.83047508 3.41253872 7.36090501
O 2.72411848 3.36920617 7.30536868
O 5.16763122 3.63939010 7.33258559
O 7.28337112 3.38052318 7.26342779
O 0.94036673 5.38703853 7.38228018
O 2.79176952 5.64757096 7.23884865
O 5.06144849 5.87958416 7.38575216
O 7.18983266 5.69065349 7.29240521
O 0.57643335 7.53948777 7.51932797
O 3.09140458 7.47885478 7.35349990
O 5.29318455 7.69934690 7.34429791
O 7.35256542 7.48292057 7.60866369
