324
# CELL(abcABC): 8.1355613 8.1355613 8.1355613 90.00000     90.00000     90.00000   cell{angstrom}  Traj: positions{angstrom}
H 1.09101014 1.07366814 6.40220616
H 4.33542444 6.27788976 3.64818331
H 7.52325868 0.44358028 3.72433956
H 6.09759420 1.62444608 6.51732881
H 5.52278052 2.09218057 1.65336403
H 0.99127418 3.14148884 3.65969732
H 3.94200557 2.53063211 2.78157430
H 6.20808050 3.12880237 7.12850653
H 2.61333604 1.48187981 7.65918732
H 3.58485285 5.45044116 3.09256408
H 5.12965619 2.55447969 6.68687260
H 7.22124868 7.61715142 7.89833605
H 6.33813297 0.50368106 1.34673111
H 0.14857327 5.34218011 7.44674119
H 0.69306053 2.42410251 7.70278591
H 6.74932047 3.01546797 4.80673896
H 7.15290834 4.05052823 0.80247301
H 0.76311094 0.98496315 4.69421680
H 4.92269339 7.22655083 6.84967518
H 5.00685001 7.39278316 4.55531749
H 3.13362726 7.49073725 1.66768999
H 6.21788384 7.00450787 1.44615344
H 0.83858722 2.21629814 5.95649747
H 3.61043849 4.88878581 2.25919391
H 4.80651775 4.43701152 8.10546639
H 5.19616468 8.10638343 1.34469207
H 5.76026506 5.43450104 5.99200870
H 7.17547494 5.17454099 3.26892138
H 1.66211727 7.36065672 4.72503460
H 6.01335921 1.93342653 2.91232971
H 7.81681386 2.39786572 1.01764060
H 4.43255398 4.45675279 4.62249104
H 7.69812386 5.29689047 1.96613414
H 2.58388237 6.98772771 8.00300861
H 7.84604136 1.34126311 3.10175309
H 2.06250126 2.94139727 4.74624049
H 7.91491183 4.18632148 8.00041512
H 6.66954477 0.38414871 2.73906902
H 1.45698849 0.88653485 3.76385396
H 2.34637923 0.03534227 1.96470471
H 0.02661947 7.82895284 4.43323074
H 2.20542813 4.06375002 5.95440744
H 6.68324143 1.79541656 7.79208978
H 3.11028601 0.80222784 2.75630181
H 0.55279614 3.67433015 5.03003048
H 1.77274058 3.77384018 3.76795133
H 3.13080619 3.06840074 1.58167618
H 4.58343945 2.56092578 7.75007356
H 4.89609751 4.15483581 6.36835795
H 2.96173190 5.09057729 3.64646132
H 6.22576512 3.48524472 6.15881588
H 4.36531956 6.15575781 7.25583439
H 7.15396996 1.84999343 1.66413198
H 0.51373968 0.40132939 1.09884631
H 0.66068593 6.26854414 4.99347134
H 1.23981940 3.16517729 6.31997637
H 6.81887208 2.60554299 0.52181447
H 6.80480251 7.22092317 3.39833573
H 4.77274768 0.30153796 0.13097409
H 0.47165058 4.53569096 4.73783825
H 3.43356741 0.78513441 1.49985773
H 3.35999691 1.67368991 1.04302658
H 7.39165376 3.11380244 2.98620241
H 0.59549309 7.10872429 2.62536574
H 5.18955975 7.00406024 7.54326751
H 3.61626925 7.67493559 6.39587721
H 7.35008697 7.66790821 5.60588180
H 5.92273941 4.26647078 3.53115985
H 2.32980778 5.22396529 1.24908142
H 2.22314859 4.74960751 3.24778274
H 3.90078978 6.05349674 6.34041667
H 0.68876080 7.03448891 3.59945978
H 7.22104023 7.50994115 2.15456242
H 0.83949421 1.83655913 1.66036715
H 6.11939629 -0.01175152 7.38706543
H 4.66004711 7.91911870 3.00538312
H 3.04924528 6.94904361 5.15509507
H 3.08249747 1.63043801 5.57608382
H 7.42635402 1.94118885 4.52219345
H 2.97158332 0.43088435 5.82408538
H 2.18661834 3.11012235 2.58974626
H 1.09751310 2.33114768 5.01518704
H 6.54783847 6.87955327 6.57422266
H 1.49927388 4.73902822 6.10584398
H 0.62170986 7.41565220 0.88612850
H 0.98808915 0.09208643 0.09119023
H 1.47395524 5.54213113 2.63605357
H 7.36847400 3.99472434 1.97773437
H 0.75433814 5.39963357 0.28196068
H 3.22954664 2.89980307 4.82876193
H 4.85968139 3.51518338 3.20033399
H 5.52810419 5.57097735 3.55049368
H 5.64878962 6.18020338 5.13422299
H 2.32509430 1.83842851 5.16012532
H 5.24198111 4.70839364 3.90374845
H 7.43489881 5.91643059 0.86410400
H 7.19007181 6.38062053 3.50047947
H 3.90206678 5.81283032 4.73312917
H 0.05387007 2.54091566 3.55401718
H 4.34646225 5.29780816 5.58812057
H 5.53957894 2.92198163 4.87008384
H 4.93024992 2.66514920 1.88188422
H 3.68803697 7.53925439 4.95841340
H 3.30224777 7.39742921 3.63692641
H 4.30594057 3.87238019 1.72238064
H 0.00057902 5.75579545 4.28369721
H 7.88257081 0.22152563 6.62584152
H 3.62751381 5.71234995 1.19512706
H 1.77150732 4.74086202 4.85654436
H 7.82882107 6.66985439 5.80955248
H 0.95561153 4.52765534 2.29223502
H 4.14436499 1.73925535 6.21140395
H 6.15152822 0.15465856 5.86360051
H 3.13571330 4.34134764 5.31696748
H 3.42771635 3.68382734 7.76096024
H 7.55400061 3.72116892 6.18145723
H 2.96858724 0.69221097 0.79868613
H 4.42410962 1.14704666 7.19753023
H 3.05654182 0.27939805 7.64092203
H 1.69418936 0.62556580 2.39220758
H 6.19971436 0.73498236 7.68884764
H 4.68552780 7.05877634 1.38362155
H 1.45054996 7.02265053 0.60243685
H 4.04608186 3.11986468 1.00175647
H 4.77145546 1.00221114 3.53154935
H 2.12137436 6.93176871 6.44909490
H 4.35907457 0.63341933 6.14278926
H 4.00733605 2.12105295 3.67513271
H 2.50997022 2.02467244 2.07935545
H 1.30442130 8.09074249 3.00592949
H 1.67988533 6.01548286 1.57917407
H 2.48266187 2.97486908 7.38505364
H 0.89756068 3.95773030 7.46847362
H 4.25523419 3.40940706 6.53091348
H 7.96926467 0.60134778 2.10545968
H 4.53961177 3.57473656 4.49626379
H 3.57800251 7.29040475 7.38293524
H 7.32456014 1.10837850 5.13143939
H 2.61891108 8.11042130 4.34527905
H 4.95038544 1.51245478 0.58976938
H 2.09602633 2.53443305 6.11392855
H 5.16048584 5.73704696 1.93976947
H 7.35565187 5.60134454 6.37824424
H 7.05295122 4.22860527 3.02577012
H 2.00297295 4.10422308 1.06036035
H 6.91483319 4.38986604 7.72589268
H 0.73800437 7.08176533 5.84988220
H 3.27657378 0.39798994 3.99577561
H 4.84031207 1.10801816 4.73178613
H 5.46702287 2.16099929 4.04528587
H 1.58158343 0.35224484 7.02765750
H 0.48223155 3.27283034 2.65786808
H 6.86498676 2.09058416 6.18127955
H 4.14866344 7.49689968 0.21049056
H 1.28109761 0.12613226 5.38882015
H 1.97534509 6.15824486 0.55134196
H 0.04222522 6.00272714 2.72789588
H 1.75812759 2.86979118 8.01316624
H 2.30334198 5.89064285 3.55678290
H 5.41229293 0.27956512 3.09394681
H 3.23898182 5.42040144 6.25685671
H 4.83096323 7.52903732 5.74449276
H 5.44333980 2.93601001 0.62557270
H 3.50241137 2.71664161 0.13361641
H 7.79777283 5.14347521 5.13249174
H 0.66220962 3.21003353 1.67761794
H 2.56415561 5.56005091 7.23190686
H 3.34047464 3.03693588 6.85680120
H 1.76552852 0.29583634 0.64210931
H 5.67398929 3.14781288 2.50509132
H 6.35226996 5.43253878 0.42599626
H 6.26129311 4.38305260 0.60543660
H 7.40245502 0.51022783 0.14577246
H 0.98611740 6.01939592 6.62230762
H 0.00714223 6.60804051 0.44365939
H 7.61927649 7.04556213 1.48699625
H 0.02709628 4.27733059 6.13883384
H 6.22491202 7.31584672 4.70138536
H 3.26609735 4.39967735 0.18780322
H 6.23867851 4.20247007 1.60713472
H 8.02192403 2.16506759 6.42353361
H 1.66374640 5.60564041 5.67800274
H 4.81647863 5.68571292 2.85293395
H 6.28109518 1.11742366 2.04823198
H 1.49035352 1.92088181 0.64855320
H 5.25935524 4.78957438 6.96224648
H 4.96020746 5.35913314 1.00584793
H 3.76435307 4.40677121 3.48844906
H 1.63001925 4.73438239 7.76872331
H 3.97489862 5.47810137 7.78728453
H 1.07029110 5.22290565 3.45786535
H 4.96724370 5.95535849 0.05120793
H 7.70547952 2.88242793 7.62850597
H 7.16908561 0.84247455 6.51801715
H 1.99796363 7.22817042 2.70989991
H 6.81274106 6.18565841 7.48307246
H 4.82219108 0.76303977 2.19316586
H 7.14968553 6.19252844 4.59447547
H 1.85337888 3.19275878 1.12385362
H 1.78071215 6.69477057 4.01593105
H 3.11591203 6.36075169 1.87554164
H 1.97020039 1.76866371 3.06928218
H 6.48890738 5.48220122 2.06203616
H 6.74406470 1.26091640 3.98132286
H 6.92977471 4.19409440 4.50143260
H 4.98707291 6.89869421 2.88754258
H 6.19591696 4.78872971 4.47949330
H 3.07223697 3.10436466 3.63775209
H 0.87691284 7.56206318 7.02119744
H 6.56162615 4.48374047 6.61760315
H 0.39030230 1.28250254 7.80286976
H 3.71503886 4.81898918 0.70968122
H 1.85707665 1.49257027 6.86015801
H 5.89100398 6.98958711 0.43272165
H 5.44948370 0.18591483 4.37371043
H 4.27953397 2.94484962 5.40516484
O 7.98213336 7.89914720 0.03436884
O 2.72543004 7.86233183 0.01842806
O 5.49831877 7.77534782 0.07609783
O 0.18899725 2.68720496 0.37958002
O 2.60698739 2.42082175 0.17792565
O 5.31141609 2.21777373 0.06959086
O 0.05641907 5.05966686 0.14024831
O 2.89117585 5.04668616 8.08906212
O 5.43349450 5.10317654 0.17005641
O 7.89264114 7.87778780 2.80958712
O 2.68565677 7.84928146 2.78579087
O 5.69321275 7.79276759 2.63461659
O 0.02504802 2.48778593 2.65473214
O 2.59032268 2.47988348 2.98423233
O 5.19936405 2.38542590 2.95884370
O 0.12286393 5.13563936 2.80754358
O 2.60868119 5.19090129 2.69902178
O 5.48468429 4.95638428 2.72813468
O 0.11035043 0.03394653 5.30696200
O 2.60146889 7.94372444 5.27755114
O 5.59937175 7.89269432 5.33466708
O 7.91190729 2.65993904 5.30569005
O 2.62394850 2.65969741 5.54726266
O 5.47436943 2.46459877 5.60352441
O 0.17049545 5.14426095 5.85667907
O 2.70210732 5.31780695 5.28144035
O 5.48887900 5.08505168 5.31163873
O 1.34477569 0.98650367 8.06124426
O 3.99806051 1.11296515 0.18338106
O 6.72015442 1.16171313 0.12869225
O 1.50470056 4.03014712 0.18713184
O 4.11983092 3.58708488 0.08918055
O 6.54516399 3.66938600 0.21828639
O 1.42001027 6.72180622 7.99220270
O 4.07492485 6.46700918 0.17405801
O 6.76477198 6.47255700 0.23894627
O 1.06495913 1.19264082 2.78703598
O 3.97349760 1.06579907 2.76081855
O 6.73742610 1.25402058 2.90287791
O 1.16668633 3.85306736 3.04393243
O 4.03451787 3.75774431 2.85582893
O 6.67701384 3.52862554 2.64783904
O 1.30581605 6.45142505 2.84801126
O 3.82869176 6.51331857 2.58975408
O 6.81002172 6.30495598 2.64449805
O 1.42565224 1.14304882 5.55115334
O 4.07776460 0.98865774 5.41143084
O 6.58279340 1.13082051 5.43560918
O 1.36354610 3.81002587 5.50421064
O 4.13044257 3.85975022 5.64786739
O 6.72134153 3.89901807 5.67152067
O 1.50730513 6.63997939 5.54320437
O 4.24464171 6.62800746 5.50419051
O 6.75633190 6.50971116 5.48010550
O 8.00366869 1.18443939 1.39379371
O 2.59210338 1.12791852 1.57987870
O 5.38962243 0.90787779 1.58527347
O 0.09454623 3.91782947 1.39136063
O 2.84091809 3.87558399 1.36492767
O 5.16564488 3.72401388 1.53147728
O 0.25622474 6.43785478 1.36448018
O 2.51293513 6.70597469 1.37032343
O 5.46279408 6.42315787 1.55969300
O 0.02835684 1.22208353 4.06893348
O 2.60497867 1.22291731 4.30328318
O 5.47102581 1.11047709 4.11665324
O 7.73658277 3.91293953 4.13234669
O 2.76627324 3.90660404 4.10183864
O 5.52175546 3.71233409 4.24943868
O 8.01051130 6.63158607 4.48070733
O 2.77944727 6.59863898 4.08497846
O 5.39283630 6.46058272 3.90347252
O 8.02143498 1.20235652 6.80527408
O 2.71616489 1.10705743 6.72002440
O 5.45732302 0.99735114 6.69306729
O 0.00812919 3.55976565 6.99062425
O 2.73011413 3.80316325 7.01378209
O 5.45135558 3.90651383 6.96712517
O 0.07887572 6.51332380 6.76063247
O 2.90459585 6.32498672 6.71841901
O 5.50801168 6.55701642 6.82900850
O 1.30240533 8.00910045 1.36409709
O 3.94671889 7.68082446 1.47894735
O 6.90988178 7.80286243 1.17197618
O 1.53358777 2.43235682 1.59967203
O 4.10305368 2.28129356 1.51143475
O 6.52843509 2.43259475 1.40670609
O 1.40892397 5.08575142 1.41050283
O 4.14899221 5.13189624 1.46365763
O 6.73907786 5.10137412 1.31892285
O 1.38425362 7.87946489 3.98815812
O 4.28736306 7.83824318 4.13028539
O 6.70883979 8.02082276 4.04816437
O 1.30854199 2.46743430 4.18155413
O 4.11263923 2.54306673 4.38779397
O 6.70761265 2.50261544 4.13947284
O 1.17486062 5.15932893 4.31901742
O 4.20954993 5.26111766 3.86395292
O 6.81451548 5.24285069 4.10083695
O 1.72143279 7.78944137 6.80554881
O 4.12381799 7.99995155 6.91713639
O 6.87418273 7.91854253 6.83429399
O 1.47014641 2.50342337 6.99486748
O 3.91387223 2.21918876 6.91668995
O 6.73894005 2.48028867 7.00105359
O 1.35371328 5.29520781 6.96306894
O 4.10362158 5.19110293 6.94679003
O 6.63533944 5.24535980 6.90913002
